 # Fcc Al oriented X=[100], Y=[010], Z=[001].
 CRYSTAL
 PRIMVEC
      4.02000000        0.00000000        0.00000000
      0.00000000        4.02000000        0.00000000
      0.00000000        0.00000000        4.02000000
 CONVVEC
      4.02000000        0.00000000        0.00000000
      0.00000000        4.02000000        0.00000000
      0.00000000        0.00000000        4.02000000
 PRIMCOORD
        4 1
13        0.00000000        0.00000000        0.00000000
13        2.01000000        2.01000000        0.00000000
13        0.00000000        2.01000000        2.01000000
13        2.01000000        0.00000000        2.01000000
